LAMMPS (20 Nov 2019)

# --------------------------------------------------------------------------------------------------
# rutile TiO2 WITHOUT elecanisoc field
# NOTE: according to wikipedia, rutile melts at ~2200 K

# --------------------------------------------------------------------------------------------------
# define simulation domain
# --------------------------------------------------------------------------------------------------

units           metal
dimension       3
newton          on
boundary        p p p
atom_style      charge

#comm_modify     cutoff 48
neighbor        2.0 bin
neigh_modify    every 100 delay 0 check yes

# --------------------------------------------------------------------------------------------------
# define simulation paramters
# --------------------------------------------------------------------------------------------------

variable        dt equal    0.001         # timestep

variable        dt_dump equal 16
variable        sqw_run equal 8016

variable	t_start     equal 600
variable        t_sim       equal 300

variable        seed equal 864215

variable        therm_run equal 1000
variable        quench_run equal 1000
variable        damp_run equal 500

variable        trj_dump equal 100
variable        thermo_dump equal 100

# --------------------------------------------------------------------------------------------------
# define crystal
# --------------------------------------------------------------------------------------------------

read_data       lammps.MA.in
  orthogonal box = (0 0 0) to (91.86 91.86 89.43)
  reading atoms ...
  71276 atoms

# --------------------------------------------------------------------------------------------------
# define potential
# --------------------------------------------------------------------------------------------------

pair_style      buck/coul/long 12.0 # cutoff Buckingham at 10 A, use Ewald for Coulomb (not cut off)

pair_coeff      1 1     31120.43 0.154  5.2469
pair_coeff      1 2     16957.67 0.194 12.5926
pair_coeff      2 2     11782.85 0.234 30.2222

kspace_style    pppm 1.0e-5

# --------------------------------------------------------------------------------------------------
# set some more params
# --------------------------------------------------------------------------------------------------

#delete_atoms    overlap 0.1 all all

timestep        0.001
reset_timestep  0

thermo          100
thermo_style    custom step etotal temp pe press pxx pyy pzz pxy pxz pyz lx ly lz xy xz yz fmax

dump            TRJ all custom 100 sim.lammpstrj id type x y z
dump_modify     TRJ sort id

# --------------------------------------------------------------------------------------------------
# large damping coeff; keep system from 'blowing up' if bad initial config
# --------------------------------------------------------------------------------------------------

fix             NVE all nve
fix             VISCOUS all viscous 1
run             500
PPPM initialization ...
  G vector (1/distance) = 0.27459
  grid = 96 96 90
  stencil order = 5
  estimated absolute RMS force accuracy = 0.000169102
  estimated relative force accuracy = 1.17435e-05
  3d grid and FFT values/proc = 88660 55296
  update every 100 steps, delay 0 steps, check yes
Step TotEng Temp PotEng Press Pxx Pyy Pzz Pxy Pxz Pyz Lx Ly Lz Xy Xz Yz Fmax
0   -865142.22            0   -865142.22    418199.74    650371.46    643138.74    -38910.99   -2659.7565   -2487.9876    4567.5067        91.86        91.86        89.43            0            0            0    14.983779
Loop time of 53.7704 on 16 procs for 500 steps with 71276 atoms

unfix           VISCOUS
unfix           NVE

fix             RELAX all box/relax aniso 0.0 vmax 0.001
min_style       cg
min_modify      line quadratic
minimize        1e-55 1e-55 50000 100000
PPPM initialization ...
  G vector (1/distance) = 0.27459
  grid = 96 96 90
  stencil order = 5
  estimated absolute RMS force accuracy = 0.000169102
  estimated relative force accuracy = 1.17435e-05
  3d grid and FFT values/proc = 88660 55296
Step TotEng Temp PotEng Press Pxx Pyy Pzz Pxy Pxz Pyz Lx Ly Lz Xy Xz Yz Fmax
500   -953308.12  0.032361091   -953308.42   -54558.807   -85443.763   -90793.593    12560.936    9274.8247   -699.96807   -60.070105        91.86        91.86        89.43            0            0            0   0.57258243
Loop time of 13.0048 on 16 procs for 28 steps with 71276 atoms

Minimization stats:
  Stopping criterion = linesearch alpha is zero
  Energy initial, next-to-last, final =
  Force two-norm initial, final = 59020.6 88.3162
  Force max component initial, final = 42764.4 30.591
  Final line search alpha, max atom move = 1.16748e-12 3.57144e-11
  Iterations, force evaluations = 28 80

unfix           RELAX

# --------------------------------------------------------------------------------------------------
# NPT run, no field
# --------------------------------------------------------------------------------------------------

velocity        all create 600 864215 mom yes rot yes dist gaussian

fix             THERM all npt temp 600 600 $(100.0*dt) aniso 0.0 0.0 $(1000.0*dt)
fix             THERM all npt temp 600 600 0.10000000000000000555 aniso 0.0 0.0 $(1000.0*dt)
fix             THERM all npt temp 600 600 0.10000000000000000555 aniso 0.0 0.0 1
run             1000
PPPM initialization ...
  G vector (1/distance) = 0.274977
  grid = 96 90 96
  stencil order = 5
  estimated absolute RMS force accuracy = 0.000166008
  estimated relative force accuracy = 1.15286e-05
  3d grid and FFT values/proc = 90750 52992
Step TotEng Temp PotEng Press Pxx Pyy Pzz Pxy Pxz Pyz Lx Ly Lz Xy Xz Yz Fmax
528   -948765.01          600   -954292.82    8090.7501    8109.9469    8105.3952    8056.9084    8514.9391   -967.59968     309.6135    90.143475     89.56908    90.912706            0            0            0    1.4486126
Averages over the last 6 of 12 rows, steps 1100 to 1528:
TotEng Temp PotEng Press Pxx Pyy Pzz Pxy Pxz Pyz Lx Ly Lz Xy Xz Yz Fmax
-946193 600.741 -951728 -47.2705 -156.278 277.614 -263.147 2700.93 -161.634 49.9635 90.0176 89.8795 91.3817 0 0 0 7.32089
Loop time of 125.036 on 16 procs for 1000 steps with 71276 atoms

unfix           THERM

fix             QUENCH all npt temp 600 300 $(100.0*dt) aniso 0.0 0.0 $(1000.0*dt)
fix             QUENCH all npt temp 600 300 0.10000000000000000555 aniso 0.0 0.0 $(1000.0*dt)
fix             QUENCH all npt temp 600 300 0.10000000000000000555 aniso 0.0 0.0 1
run             1000
PPPM initialization ...
  G vector (1/distance) = 0.276041
  grid = 96 96 96
  stencil order = 5
  estimated absolute RMS force accuracy = 0.000150235
  estimated relative force accuracy = 1.04332e-05
  3d grid and FFT values/proc = 93775 55296
Step TotEng Temp PotEng Press Pxx Pyy Pzz Pxy Pxz Pyz Lx Ly Lz Xy Xz Yz Fmax
1528   -946353.08    602.65889   -951905.39    21.358301    169.95653    188.69212   -294.57375    1912.8844   -220.00733    51.692428    89.978162    89.951653     91.32758            0            0            0    6.0770411
Averages over the last 6 of 12 rows, steps 2100 to 2528:
TotEng Temp PotEng Press Pxx Pyy Pzz Pxy Pxz Pyz Lx Ly Lz Xy Xz Yz Fmax
-949181 467.154 -953485 68.1897 116.003 84.8346 3.73116 2847.43 -211.474 4.80003 89.9203 89.9258 91.1107 0 0 0 5.30042
Loop time of 131.053 on 16 procs for 1000 steps with 71276 atoms

unfix           QUENCH

fix             THERM all npt temp 300 300 $(100.0*dt) aniso 0.0 0.0 $(1000.0*dt)
fix             THERM all npt temp 300 300 0.10000000000000000555 aniso 0.0 0.0 $(1000.0*dt)
fix             THERM all npt temp 300 300 0.10000000000000000555 aniso 0.0 0.0 1
run             1000
PPPM initialization ...
  G vector (1/distance) = 0.27391
  grid = 90 90 96
  stencil order = 5
  estimated absolute RMS force accuracy = 0.000181619
  estimated relative force accuracy = 1.26128e-05
  3d grid and FFT values/proc = 85800 49680
Step TotEng Temp PotEng Press Pxx Pyy Pzz Pxy Pxz Pyz Lx Ly Lz Xy Xz Yz Fmax
2528   -950182.04    417.53658   -954028.81    463.66909    685.58165    495.49547    209.93016    2839.3246   -339.37942    163.77403    89.888972    89.869919    91.056841            0            0            0    4.7138313
Averages over the last 6 of 12 rows, steps 3100 to 3528:
TotEng Temp PotEng Press Pxx Pyy Pzz Pxy Pxz Pyz Lx Ly Lz Xy Xz Yz Fmax
-952323 304.437 -955128 -16.4606 26.4746 4.22139 -80.0778 2836.4 -109.049 116.648 89.8429 89.8303 90.924 0 0 0 4.55815
Loop time of 130.098 on 16 procs for 1000 steps with 71276 atoms

unfix           THERM

write_data      magneli.equilibrated.pos nocoeff
PPPM initialization ...
  G vector (1/distance) = 0.27395
  grid = 90 90 96
  stencil order = 5
  estimated absolute RMS force accuracy = 0.000181251
  estimated relative force accuracy = 1.25872e-05
  3d grid and FFT values/proc = 85800 49680

# --------------------------------------------------------------------------------------------------
# sqw run
# --------------------------------------------------------------------------------------------------

dump            POSITIONS all h5md 16 pos.h5 position species
dump_modify     POSITIONS sort id

fix             SQW all nve
run             8016
PPPM initialization ...
  G vector (1/distance) = 0.27395
  grid = 90 90 96
  stencil order = 5
  estimated absolute RMS force accuracy = 0.000181251
  estimated relative force accuracy = 1.25872e-05
  3d grid and FFT values/proc = 85800 49680
Step TotEng Temp PotEng Press Pxx Pyy Pzz Pxy Pxz Pyz Lx Ly Lz Xy Xz Yz Fmax
3528   -952488.01    296.46911   -955219.38   -275.71499   -31.962419   -245.52521   -549.65735    2952.4128   -387.99944    211.38554    89.832457    89.832426    90.920134            0            0            0    4.4060653
Averages over the last 41 of 82 rows, steps 7600 to 11544:
TotEng Temp PotEng Press Pxx Pyy Pzz Pxy Pxz Pyz Lx Ly Lz Xy Xz Yz Fmax
-952488 297.337 -955227 -79.2376 120.905 -3.10422 -355.514 2773.24 -181.887 136.105 89.8325 89.8324 90.9201 0 0 0 4.20162
Loop time of 919.281 on 16 procs for 8016 steps with 71276 atoms

unfix           SQW

undump          POSITIONS
